Input Parameters:
   integrator                     = md
   tinit                          = 0
   dt                             = 0.002
   nsteps                         = 50000
   init-step                      = 0
   simulation-part                = 1
   mts                            = false
   comm-mode                      = Linear
   nstcomm                        = 100
   bd-fric                        = 0
   ld-seed                        = -1912610945
   emtol                          = 10
   emstep                         = 0.01
   niter                          = 20
   fcstep                         = 0
   nstcgsteep                     = 1000
   nbfgscorr                      = 10
   rtpi                           = 0.05
   nstxout                        = 0
   nstvout                        = 0
   nstfout                        = 0
   nstlog                         = 500
   nstcalcenergy                  = 100
   nstenergy                      = 500
   nstxout-compressed             = 500
   compressed-x-precision         = 1000
   cutoff-scheme                  = Verlet
   nstlist                        = 20
   pbc                            = xyz
   periodic-molecules             = false
   verlet-buffer-tolerance        = 0.005
   rlist                          = 2.03
   coulombtype                    = PME
   coulomb-modifier               = Potential-shift
   rcoulomb-switch                = 0
   rcoulomb                       = 2
   epsilon-r                      = 1
   epsilon-rf                     = inf
   vdw-type                       = Cut-off
   vdw-modifier                   = Force-switch
   rvdw-switch                    = 1
   rvdw                           = 2
   DispCorr                       = No
   table-extension                = 1
   fourierspacing                 = 0.16
   fourier-nx                     = 64
   fourier-ny                     = 64
   fourier-nz                     = 64
   pme-order                      = 4
   ewald-rtol                     = 1e-05
   ewald-rtol-lj                  = 0.001
   lj-pme-comb-rule               = Geometric
   ewald-geometry                 = 3d
   epsilon-surface                = 0
   tcoupl                         = V-rescale
   nsttcouple                     = 10
   nh-chain-length                = 0
   print-nose-hoover-chain-variables = false
   pcoupl                         = Berendsen
   pcoupltype                     = Isotropic
   nstpcouple                     = 10
   tau-p                          = 2
   compressibility (3x3):
      compressibility[    0]={ 4.50000e-05,  0.00000e+00,  0.00000e+00}
      compressibility[    1]={ 0.00000e+00,  4.50000e-05,  0.00000e+00}
      compressibility[    2]={ 0.00000e+00,  0.00000e+00,  4.50000e-05}
   ref-p (3x3):
      ref-p[    0]={ 1.00000e+00,  0.00000e+00,  0.00000e+00}
      ref-p[    1]={ 0.00000e+00,  1.00000e+00,  0.00000e+00}
      ref-p[    2]={ 0.00000e+00,  0.00000e+00,  1.00000e+00}
   refcoord-scaling               = COM
   posres-com (3):
      posres-com[0]= 5.02856e-01
      posres-com[1]= 5.07858e-01
      posres-com[2]= 4.88965e-01
   posres-comB (3):
      posres-comB[0]= 5.02856e-01
      posres-comB[1]= 5.07858e-01
      posres-comB[2]= 4.88965e-01
   QMMM                           = false
qm-opts:
   ngQM                           = 0
   constraint-algorithm           = Lincs
   continuation                   = true
   Shake-SOR                      = false
   shake-tol                      = 0.0001
   lincs-order                    = 4
   lincs-iter                     = 1
   lincs-warnangle                = 30
   nwall                          = 0
   wall-type                      = 9-3
   wall-r-linpot                  = -1
   wall-atomtype[0]               = -1
   wall-atomtype[1]               = -1
   wall-density[0]                = 0
   wall-density[1]                = 0
   wall-ewald-zfac                = 3
   pull                           = false
   awh                            = false
   rotation                       = false
   interactiveMD                  = false
   disre                          = No
   disre-weighting                = Conservative
   disre-mixed                    = false
   dr-fc                          = 1000
   dr-tau                         = 0
   nstdisreout                    = 100
   orire-fc                       = 0
   orire-tau                      = 0
   nstorireout                    = 100
   free-energy                    = no
   cos-acceleration               = 0
   deform (3x3):
      deform[    0]={ 0.00000e+00,  0.00000e+00,  0.00000e+00}
      deform[    1]={ 0.00000e+00,  0.00000e+00,  0.00000e+00}
      deform[    2]={ 0.00000e+00,  0.00000e+00,  0.00000e+00}
   simulated-tempering            = false
   swapcoords                     = no
   userint1                       = 0
   userint2                       = 0
   userint3                       = 0
   userint4                       = 0
   userreal1                      = 0
   userreal2                      = 0
   userreal3                      = 0
   userreal4                      = 0
   applied-forces:
     electric-field:
       x:
         E0                       = 0
         omega                    = 0
         t0                       = 0
         sigma                    = 0
       y:
         E0                       = 0
         omega                    = 0
         t0                       = 0
         sigma                    = 0
       z:
         E0                       = 0
         omega                    = 0
         t0                       = 0
         sigma                    = 0
     density-guided-simulation:
       active                     = false
       group                      = protein
       similarity-measure         = inner-product
       atom-spreading-weight      = unity
       force-constant             = 1e+09
       gaussian-transform-spreading-width = 0.2
       gaussian-transform-spreading-range-in-multiples-of-width = 4
       reference-density-filename = reference.mrc
       nst                        = 1
       normalize-densities        = true
       adaptive-force-scaling     = false
       adaptive-force-scaling-time-constant = 4
       shift-vector               =
       transformation-matrix      =
     qmmm-cp2k:
       active                     = false
       qmgroup                    = System
       qmmethod                   = PBE
       qmfilenames                =
       qmcharge                   = 0
       qmmultiplicity             = 1
grpopts:
   nrdf:     11124.8      136815
   ref-t:         300         300
   tau-t:         0.1         0.1
annealing:          No          No
annealing-npoints:           0           0
   acc:	           0           0           0
   nfreeze:           N           N           N
   energygrp-flags[  0]: 0

Changing nstlist from 20 to 80, rlist from 2.03 to 2.182

Initializing Domain Decomposition on 1 ranks
Dynamic load balancing: auto
Using update groups, nr 24994, average size 2.9 atoms, max. radius 0.139 nm
Minimum cell size due to atom displacement: 0.558 nm
Initial maximum distances in bonded interactions:
    two-body bonded interactions: 0.454 nm, LJ-14, atoms 3537 3622
  multi-body bonded interactions: 0.506 nm, CMAP Dih., atoms 1100 1116
Minimum cell size due to bonded interactions: 0.556 nm
Using 0 separate PME ranks because: there are too few total ranks for efficient splitting
Optimizing the DD grid for 1 cells with a minimum initial size of 0.558 nm
The maximum allowed number of cells is: X 14 Y 14 Z 12
Domain decomposition grid 1 x 1 x 1, separate PME ranks 0
PME domain decomposition: 1 x 1 x 1

The initial number of communication pulses is:
The initial domain decomposition cell size is:

The maximum allowed distance for atom groups involved in interactions is:
                 non-bonded interactions           2.460 nm
(the following are initial values, they could change due to box deformation)
            two-body bonded interactions  (-rdd)   2.460 nm
          multi-body bonded interactions  (-rdd)   2.460 nm

When dynamic load balancing gets turned on, these settings will change to:
The maximum number of communication pulses is:
The minimum size for domain decomposition cells is 2.460 nm
The requested allowed shrink of DD cells (option -dds) is: 0.80
The allowed shrink of domain decomposition cells is:
The maximum allowed distance for atom groups involved in interactions is:
                 non-bonded interactions           2.460 nm
            two-body bonded interactions  (-rdd)   2.460 nm
          multi-body bonded interactions  (-rdd)   2.460 nm

Using 1 MPI thread
Using 8 OpenMP threads

Pinning threads with an auto-selected logical cpu stride of 1
System total charge: 0.000
Will do PME sum in reciprocal space for electrostatic interactions.

Using a Gaussian width (1/beta) of 0.640325 nm for Ewald
Potential shift: LJ r^-12: -1.770e-03 r^-6: -5.273e-02, Ewald -5.000e-06
Initialized non-bonded Coulomb Ewald tables, spacing: 1.32e-03 size: 1517

Generated table with 1591 data points for 1-4 COUL.
Tabscale = 500 points/nm
Generated table with 1591 data points for 1-4 LJ6.
Tabscale = 500 points/nm
Generated table with 1591 data points for 1-4 LJ12.
Tabscale = 500 points/nm

Using SIMD 4x4 nonbonded short-range kernels

Using a dual 4x4 pair-list setup updated with dynamic pruning:
  outer list: updated every 80 steps, buffer 0.182 nm, rlist 2.182 nm
  inner list: updated every 13 steps, buffer 0.003 nm, rlist 2.003 nm
At tolerance 0.005 kJ/mol/ps per atom, equivalent classical 1x1 list would be:
  outer list: updated every 80 steps, buffer 0.298 nm, rlist 2.298 nm
  inner list: updated every 13 steps, buffer 0.051 nm, rlist 2.051 nm

Linking all bonded interactions to atoms

Initializing LINear Constraint Solver

The number of constraints is 2276

There are: 72876 Atoms

Atom distribution over 1 domains: av 72876 stddev 0 min 72876 max 72876
Center of mass motion removal mode is Linear
We have the following groups for center of mass motion removal:
  0:  rest

Started mdrun on rank 0 Tue Jun 14 13:34:57 2022

           Step           Time
              0        0.00000

   Energies (kJ/mol)
           Bond            U-B    Proper Dih.  Improper Dih.      CMAP Dih.
    3.69753e+03    1.01347e+04    1.09018e+04    5.77149e+02    2.31044e+01
          LJ-14     Coulomb-14        LJ (SR)   Coulomb (SR)   Coul. recip.
    4.02623e+03    6.24513e+04    8.63388e+04   -1.11099e+06    7.03362e+02
    2.79698e-01   -9.32139e+05    1.85353e+05   -7.46787e+05   -7.46759e+05
    Temperature Pressure (bar)   Constr. rmsd
    3.01376e+02   -4.27118e+02    3.68931e-06

	<====  A V E R A G E S  ====>

	Statistics over 50001 steps using 501 frames

   Energies (kJ/mol)
           Bond            U-B    Proper Dih.  Improper Dih.      CMAP Dih.
    3.66107e+03    1.02244e+04    1.09182e+04    5.73325e+02   -2.98489e+01
          LJ-14     Coulomb-14        LJ (SR)   Coulomb (SR)   Coul. recip.
    4.03461e+03    6.25418e+04    8.80110e+04   -1.11789e+06    7.00741e+02
 Position Rest.      Potential    Kinetic En.   Total Energy  Conserved En.
    1.10007e+03   -9.36153e+05    1.84510e+05   -7.51643e+05   -7.46187e+05
    Temperature Pressure (bar)   Constr. rmsd
    3.00006e+02   -1.44199e+01    0.00000e+00

          Box-X          Box-Y          Box-Z
    1.00392e+01    1.00392e+01    7.09877e+00

   Total Virial (kJ/mol)
    6.20109e+04    6.04148e+02   -2.51197e+02
    6.04082e+02    6.17863e+04    2.52978e+02
   -2.50958e+02    2.53178e+02    6.16539e+04

   Pressure (bar)
   -2.05373e+01   -2.65595e+01    8.56941e+00
   -2.65564e+01   -9.19300e+00   -9.62240e+00
    8.55833e+00   -9.63163e+00   -1.35292e+01

      T-Protein        T-Water
    3.00106e+02    2.99998e+02
